Version 4
SHEET 1 880 680
WIRE 768 -16 416 -16
WIRE 416 64 416 -16
WIRE 768 64 768 -16
WIRE 144 144 -128 144
WIRE 368 144 224 144
WIRE -128 208 -128 144
WIRE -80 208 -128 208
WIRE 352 224 48 224
WIRE 416 224 416 160
WIRE 416 224 352 224
WIRE -208 240 -208 144
WIRE -208 240 -272 240
WIRE -80 240 -208 240
WIRE 128 256 48 256
WIRE -80 272 -208 272
WIRE -208 288 -208 272
WIRE 128 288 128 256
WIRE 416 320 416 224
WIRE 128 336 128 288
WIRE -272 416 -272 240
WIRE -208 416 -208 368
WIRE 128 496 128 416
WIRE 416 496 416 400
WIRE 416 496 128 496
WIRE 768 496 768 144
WIRE 768 496 416 496
WIRE 416 592 416 496
FLAG -208 416 0
FLAG -272 416 0
FLAG 416 592 0
FLAG 128 288 Vsig
FLAG 352 224 V_drive
SYMBOL AutoGenerated\\OPAx227 -16 240 R180
SYMATTR InstName U2
SYMBOL nmos 368 64 R0
SYMATTR InstName M1
SYMATTR Value BSZ018NE2LS
SYMBOL voltage 768 48 R0
WINDOW 123 0 0 Left 0
WINDOW 39 0 0 Left 0
SYMATTR InstName V1
SYMATTR Value 100
SYMBOL res 400 304 R0
SYMATTR InstName R1
SYMATTR Value 0.3
SYMBOL voltage 128 320 R0
WINDOW 123 0 0 Left 0
WINDOW 39 0 0 Left 0
SYMATTR InstName V2
SYMATTR Value PULSE(0 7 4u 0 0 4us)
SYMBOL voltage -208 272 R0
WINDOW 123 0 0 Left 0
WINDOW 39 0 0 Left 0
SYMATTR InstName V3
SYMATTR Value 20
SYMBOL res 240 128 R90
WINDOW 0 0 56 VBottom 2
WINDOW 3 32 56 VTop 2
SYMATTR InstName R2
SYMATTR Value 100
SYMBOL res -112 128 R90
WINDOW 0 0 56 VBottom 2
WINDOW 3 32 56 VTop 2
SYMATTR InstName R4
SYMATTR Value 1000
TEXT -168 -32 Left 2 !.tran 40u
