Version 4
SHEET 1 1056 804
WIRE 528 -208 -464 -208
WIRE -112 -112 -1056 -112
WIRE 528 0 528 -208
WIRE 864 0 528 0
WIRE 528 112 528 0
WIRE 864 112 864 0
WIRE -464 144 -464 -208
WIRE 192 160 192 48
WIRE -112 176 -112 -112
WIRE -112 176 -128 176
WIRE 160 176 -112 176
WIRE -800 192 -800 80
WIRE 320 192 224 192
WIRE 480 192 400 192
WIRE -1056 208 -1056 -112
WIRE -832 208 -1056 208
WIRE 160 208 48 208
WIRE -672 224 -768 224
WIRE -512 224 -592 224
WIRE -832 240 -944 240
WIRE -128 304 -128 176
WIRE 528 304 528 208
WIRE 528 304 432 304
WIRE -464 336 -464 240
WIRE -464 336 -560 336
WIRE 192 352 192 224
WIRE -800 384 -800 256
WIRE 528 448 528 304
WIRE -464 480 -464 336
WIRE 48 528 48 208
WIRE 432 528 432 304
WIRE 432 528 48 528
WIRE -944 560 -944 240
WIRE -560 560 -560 336
WIRE -560 560 -944 560
WIRE -464 592 -464 560
WIRE 528 592 528 528
WIRE 528 592 -464 592
WIRE 528 704 528 592
WIRE 688 784 528 784
WIRE 864 784 864 192
WIRE 864 784 688 784
FLAG -128 384 0
FLAG 192 432 0
FLAG 192 -32 0
FLAG -800 464 0
FLAG -800 0 0
FLAG 688 784 0
SYMBOL nmos 480 112 R0
SYMATTR InstName M1
SYMATTR Value BSC340N08NS3
SYMBOL res 416 176 R90
WINDOW 0 0 56 VBottom 2
WINDOW 3 32 56 VTop 2
SYMATTR InstName R1
SYMATTR Value 50
SYMBOL voltage 864 96 R0
WINDOW 123 0 0 Left 0
WINDOW 39 0 0 Left 0
SYMATTR InstName V1
SYMATTR Value SINE(10 5 80)
SYMBOL res 512 432 R0
SYMATTR InstName R4
SYMATTR Value 0.05
SYMBOL voltage -128 288 R0
WINDOW 123 0 0 Left 0
WINDOW 39 0 0 Left 0
SYMATTR InstName V2
SYMATTR Value SINE(0.05 0.05 60)
SYMBOL OpAmps\\OP77 192 256 M180
SYMATTR InstName U2
SYMBOL voltage 192 336 R0
WINDOW 123 0 0 Left 0
WINDOW 39 0 0 Left 0
SYMATTR InstName V3
SYMATTR Value 12
SYMBOL voltage 192 -48 R0
WINDOW 123 0 0 Left 0
WINDOW 39 0 0 Left 0
SYMATTR InstName V4
SYMATTR Value 5
SYMBOL nmos -512 144 R0
SYMATTR InstName M2
SYMATTR Value BSC340N08NS3
SYMBOL res -576 208 R90
WINDOW 0 0 56 VBottom 2
WINDOW 3 32 56 VTop 2
SYMATTR InstName R2
SYMATTR Value 50
SYMBOL res -480 464 R0
SYMATTR InstName R3
SYMATTR Value 0.05
SYMBOL OpAmps\\OP77 -800 288 M180
SYMATTR InstName U1
SYMBOL voltage -800 368 R0
WINDOW 123 0 0 Left 0
WINDOW 39 0 0 Left 0
SYMATTR InstName V6
SYMATTR Value 12
SYMBOL voltage -800 -16 R0
WINDOW 123 0 0 Left 0
WINDOW 39 0 0 Left 0
SYMATTR InstName V7
SYMATTR Value 5
SYMBOL res 512 688 R0
SYMATTR InstName R5
SYMATTR Value 0.02
TEXT 88 64 Left 2 !.tran 0.1
